Metadata-Version: 2.1
Name: dynakit
Version: 0.0.1
Summary: Machine Learning Toolkit for LS-Dyna Simulations
Home-page: https://github.com/dynapy/dynakit/tree/main/
Author: Jobin
Author-email: jobin.john@chalmers.se
License: Apache Software License 2.0
Keywords: LS-Dyna,ML,FE
Platform: UNKNOWN
Classifier: Development Status :: 2 - Pre-Alpha
Classifier: Intended Audience :: Developers
Classifier: Natural Language :: English
Classifier: Programming Language :: Python :: 3.6
Classifier: Programming Language :: Python :: 3.7
Classifier: Programming Language :: Python :: 3.8
Classifier: License :: OSI Approved :: Apache Software License
Requires-Python: >=3.6
Description-Content-Type: text/markdown
Requires-Dist: lasso-python (>=1.5.0)

# nbdev template

Use this template to more easily create your [nbdev](https://nbdev.fast.ai/) project.

_If you are using an older version of this template, and want to upgrade to the theme-based version, see [this helper script](https://gist.github.com/hamelsmu/977e82a23dcd8dcff9058079cb4a8f18) (more explanation of what this means is contained in the link to the script)_.


